OptimalCapacitorPlacement-master/EDN/Network_data_EDN.m


% IEEE 14BUS
            %send recieve R  X (ohm)     line_num
line_data=[   1     2	0.05630 0.031500           1
              2     3	0.07155 0.025974           2
              3     4	0.01855 0.006734           3
              4     5	0.05565 0.020202           4
              5     6	0.05300 0.019240           5
              6     7	0.05300 0.019240	       6
              7     8	0.02120 0.007696           7
              8     9	0.10070 0.036556           8
              9     10	0.04505 0.016354           9
              10	11	0.03975 0.014430           10
              11	12	0.11130 0.040404           11
              12    13	0.01325 0.004810           12
              2     14	0.06360 0.023088           13
              14	15	0.07155 0.025974           14
              15	16	0.02650 0.009620           15
              16	17	0.01060 0.003848           16
              17    18	0.09275 0.033670           17
              18	19	0.01060 0.003848           18
              19	20	0.02650 0.009620           19
              20	21	0.04505 0.016354           20
              21    22  0.05300 0.019240           21
              22    23  0.05300 0.019240           22 
              23    24  0.0663 0.0240              23 
              24    25  0.2253 0.0818              24 
              25    26  0.0265 0.0096              25
              26    27  0.0265 0.0096              26 
              27    28  0.0133 0.0048              27
              28    29  0.1723 0.0625              28
              29    30  0.0080 0.0029              29];     
          
%              bus_number      P(kw)                     Q(kVAR)
   bus_data=[    1	            0	    0
                 2	            2875 1814
                 3	            1100 695
                 4	            1100 695
                 5	            899 568
                 6	            770 486
                 7	            668 423
                 8	            598 378
                 9	            546 345
                 10	            380 240
                 11	            210 132
                 12	            94.586 59.368
                 13          	34.423 21.518
                 14          	1772 1118
                 15             1640 1035
                 16             1452 915
                 17             1434 904
                 18             1212 765
                 19             1086 685
                 20             953 602
                 21             827 521
                 22             716 452
                 23             550 347
                 24             434 273
                 25             346 218
                 26             316 199
                 27             184 116
                 28             139 87.911
                 29             113 71.734
                 30             34.25 21.734];                 
                  
              
              
              
              
              
              
              
              
              
              